Circuit: * C:\Users\cordi\OneDrive\Documents\GitHub\Weather_Balloon\External_Power_Amp\sims\atten.asc

WARNING: Less than two connections to node P_TOTAL.  This node is used by B1.
WARNING: Less than two connections to node P_R1.  This node is used by B2.
WARNING: Less than two connections to node P_R2.  This node is used by B3.
WARNING: Less than two connections to node P_R3.  This node is used by B4.
Direct Newton iteration for .op point succeeded.

Date: Tue Jul 04 16:37:00 2023
Total elapsed time: 0.118 seconds.

tnom = 27
temp = 27
method = trap
totiter = 4
traniter = 0
tranpoints = 0
accept = 0
rejected = 0
matrix size = 13
fillins = 0
solver = Normal
Matrix Compiler1: 370 bytes object code size
Matrix Compiler2: 717 bytes object code size
